java/SFINA/experiments/experiment-Case30RateReduction/output/time_10/iteration_1/flow/links.txt
id,current,real_power_from,reactive_power_from,real_power_to,reactive_power_to,resistance,reactance,susceptance,rateA,rateB,rateC,ratio,angle,angmin,angmax
1,51.404725485480306,10.890572859384573,-5.086368747129555,-10.864279535785338,2.165248717927113,0.02,0.06,0.03,130.0,130.0,103.18106837793293,0.0,0.0,-360.0,360.0
2,66.8330752954227,15.08323019749378,4.0878845096140815,-14.95653499650689,-5.573003641481475,0.05,0.19,0.02,130.0,130.0,103.18106837793293,0.0,0.0,-360.0,360.0
3,72.23188989607223,16.067334025612407,5.206210990131691,-15.889328259085639,-6.66244359801053,0.06,0.17,0.02,65.0,65.0,51.590534188966465,0.0,0.0,-360.0,360.0
4,57.83883169262697,12.556534972804135,4.3730036605097915,-12.53824437856019,-4.299841283534,0.01,0.04,0.0,130.0,130.0,103.18106837793293,0.0,0.0,-360.0,360.0
5,62.05121847188372,13.791855118767614,4.50586525402425,-13.681590208861358,-6.029927549998435,0.05,0.2,0.02,130.0,130.0,103.18106837793293,0.0,0.0,-360.0,360.0
6,92.33646378782095,20.27509036982828,7.421657034274752,-19.98588821180368,-8.50113769938189,0.06,0.18,0.02,65.0,65.0,51.590534188966465,0.0,0.0,-360.0,360.0
7,110.02896302590578,22.499134639000008,11.38479912971044,-22.432943046237842,-11.120032758661793,0.01,0.04,0.0,90.0,90.0,71.43304733856895,0.0,0.0,-360.0,360.0
8,65.4135682125909,13.68159018874553,6.213300735208926,-13.561387515134909,-6.875263567523224,0.05,0.12,0.01,70.0,70.0,55.55903681888695,0.0,0.0,-360.0,360.0
9,43.04915534358109,9.270031201067942,3.167087939459191,-9.238612441753201,-4.024736432057207,0.03,0.08,0.01,130.0,130.0,103.18106837793293,0.0,0.0,-360.0,360.0
10,153.04507768000303,24.82230991469614,24.42809638328978,-24.694245778648284,-23.915839839098336,0.01,0.04,0.0,32.0,32.0,25.398416831491183,0.0,0.0,-360.0,360.0
11,29.406154881790286,5.788958195274019,-3.3563351357288345,-5.78895819527402,3.455620347641046,0.0,0.21,0.0,65.0,65.0,51.590534188966465,0.0,0.0,-360.0,360.0
12,16.803517081664218,3.30797611440031,-1.9179057898728795,-3.30797611440031,2.004358219358433,0.0,0.56,0.0,32.0,32.0,25.398416831491183,0.0,0.0,-360.0,360.0
13,0.0,0.0,-0.0,0.0,-0.0,0.0,0.21,0.0,65.0,65.0,51.590534188966465,0.0,0.0,-360.0,360.0
14,29.40615491414506,5.788958209841276,-3.4556203377099277,-5.788958209841279,3.507626877397434,0.0,0.11,0.0,65.0,65.0,51.590534188966465,0.0,0.0,-360.0,360.0
15,11.449336119336996,-1.6715620287675588,-2.0225142207055478,1.6715620287675588,2.041148935492116,0.0,0.26,0.0,65.0,65.0,51.590534188966465,0.0,0.0,-360.0,360.0
16,165.51800722763093,-36.99999999650326,-9.255834271437333,36.999999996503256,11.352877220739945,0.0,0.14,0.0,65.0,65.0,51.590534188966465,0.0,0.0,-360.0,360.0
17,23.69068379231334,5.387777267210773,0.879062988872801,-5.35095375322108,-0.7992787085617985,0.12,0.26,0.0,32.0,32.0,25.398416831491183,0.0,0.0,-360.0,360.0
18,41.38587214048506,9.477029234467272,-1.0633985223146953,-9.41147646339229,1.1851393828825185,0.07,0.13,0.0,32.0,32.0,25.398416831491183,0.0,0.0,-360.0,360.0
19,40.204068792200566,9.263631459649185,-0.10097910020286444,-9.184094073241136,0.27772884777630263,0.09,0.2,0.0,32.0,32.0,25.398416831491183,0.0,0.0,-360.0,360.0
20,5.110327212212594,-0.8490462419371209,-0.8007212905683452,0.8521875381446279,0.8035770143933517,0.22,0.2,0.0,16.0,16.0,12.699208415745591,0.0,0.0,-360.0,360.0
21,26.480687101840218,5.684094077085482,-2.0777288447174564,-5.653422417317758,2.1505740366658026,0.08,0.19,0.0,16.0,16.0,12.699208415745591,0.0,0.0,-360.0,360.0
22,40.12160735330675,9.164594704160711,0.7596924295674282,-9.067780713132768,-0.5660644475115438,0.11,0.22,0.0,16.0,16.0,12.699208415745591,0.0,0.0,-360.0,360.0
23,25.954266655183062,5.867780714030961,-0.33393554842820866,-5.845682480101619,0.38181505527511544,0.06,0.13,0.0,16.0,16.0,12.699208415745591,0.0,0.0,-360.0,360.0
24,23.299418417488972,-3.6543175028403,-3.781815058712042,3.663221811534475,3.8025917789984502,0.03,0.07,0.0,32.0,32.0,25.398416831491183,0.0,0.0,-360.0,360.0
25,32.62159205367992,5.915586873348007,4.6247769164974315,-5.863221813294654,-4.502591776372941,0.09,0.21,0.0,32.0,32.0,25.398416831491183,0.0,0.0,-360.0,360.0
26,37.76504901485631,3.3699708041457273,8.01295597811602,-3.34657757624406,-7.950574037044907,0.03,0.08,0.0,32.0,32.0,25.398416831491183,0.0,0.0,-360.0,360.0
27,51.607089034828796,-2.233825938929334,-11.667002952172496,2.277510580032271,11.76893378141268,0.03,0.07,0.0,32.0,32.0,25.398416831491183,0.0,0.0,-360.0,360.0
28,40.301392459048586,-3.7547973995913835,-8.4827150277722,3.8169596795974416,8.615919913499464,0.07,0.15,0.0,32.0,32.0,25.398416831491183,0.0,0.0,-360.0,360.0
29,130.49106392063902,-19.777510575982177,-22.968933781901274,19.870610716352147,23.15513406264121,0.01,0.02,0.0,32.0,32.0,25.398416831491183,0.0,0.0,-360.0,360.0
30,44.723566913392204,-8.805305769580782,-5.248408821791806,8.914666564473723,5.467130411577693,0.1,0.2,0.0,16.0,16.0,12.699208415745591,0.0,0.0,-360.0,360.0
31,34.53866290565447,-2.097570392959745,7.798913875481414,2.1758378239884633,-7.681512728938339,0.12,0.18,0.0,16.0,16.0,12.699208415745591,0.0,0.0,-360.0,360.0
32,30.536459856477006,7.085333440242489,0.8838220822316442,-7.019055421380293,-0.7461677353640059,0.13,0.27,0.0,16.0,16.0,12.699208415745591,0.0,0.0,-360.0,360.0
33,18.352313372618116,-3.856782402375852,1.766770997310127,3.891770797742817,-1.7060016790411878,0.19,0.33,0.0,16.0,16.0,12.699208415745591,0.0,0.0,-360.0,360.0
34,18.423298777356965,3.546394189199768,2.3705191678053166,-3.4999999998212954,-2.299999999950039,0.25,0.38,0.0,16.0,16.0,12.699208415745591,0.0,0.0,-360.0,360.0
35,32.252861357437,-7.438164986973154,-0.6645174883941433,7.500728046124546,0.7839560558649816,0.11,0.21,0.0,16.0,16.0,12.699208415745591,0.0,0.0,-360.0,360.0
36,37.843719329792656,-6.112995010702011,-6.084752723401239,6.1129950107020115,6.39796329257738,0.0,0.4,0.0,65.0,65.0,51.590534188966465,0.0,0.0,-360.0,360.0
37,27.368263219625472,6.173882002210063,1.6840278111499027,-6.083785911188996,-1.5120261828369557,0.22,0.42,0.0,16.0,16.0,12.699208415745591,0.0,0.0,-360.0,360.0
38,31.2906842218725,7.12239494767107,1.6745629309472418,-6.95109040111007,-1.353366906145363,0.32,0.6,0.0,16.0,16.0,12.699208415745591,0.0,0.0,-360.0,360.0
39,16.30291578052811,3.6837859095950103,0.6120261847324245,-3.648909593635106,-0.546633092307604,0.24,0.45,0.0,16.0,16.0,12.699208415745591,0.0,0.0,-360.0,360.0
40,35.93929921833447,-5.305754125651565,-6.084160143205206,5.341378840279734,4.330042146907093,0.06,0.2,0.02,32.0,32.0,25.398416831491183,0.0,0.0,-360.0,360.0
41,12.337827943783818,-0.7704442331877637,-2.6997728755719597,0.7716161805218339,1.7547105800152754,0.02,0.06,0.01,32.0,32.0,25.398416831491183,0.0,0.0,-360.0,360.0
